# family_boco file written by ICEM CFD by mohsy on Thu Nov 11 11:22:14 PM W. Europe Standard Time 2021
## solver ANSYS CFX
"PNTS"
"GEOM"
"CRVS"
"SOLID"
"SOLID" "color" 3403390
"INLET"
"CHANNEL_WALL"
"CHANNEL_CENTER"
"OUTLET"
"RIGHT_SYM,"
"LEFT_SYM,"
"BLADE"
"SOLID_2"
"SOLID_2" "color" 9384930
